@<TRIPOS>MOLECULE
acceptor
6 5 1                   
SMALL
USER_CHARGES
@<TRIPOS>ATOM
1	 O02	-0.285	-2.863	0.099	O.3	1	UNK11	0.000	
2	 C01	0.892	-3.455	0.655	C.3	1	UNK11	0.000	
3	 H01	1.232	-4.265	0.011	 H	1	UNK11	0.000	
4	 H02	0.668	-3.848	1.647	 H	1	UNK11	0.000	
5	 H03	1.675	-2.700	0.733	 H	1	UNK11	0.000	
6	 H04	-0.897	-3.554	-0.167	 H	1	UNK11	0.000	
@<TRIPOS>BOND
1 1 2 1
2 2 3 1
3 2 4 1
4 2 5 1
5 1 6 1
