@<TRIPOS>MOLECULE
acceptor
6 5 1                   
SMALL
USER_CHARGES
@<TRIPOS>ATOM
1	 O02	0.034	-3.330	0.177	O.3	1	UNK11	0.000	
2	 C01	1.180	-2.678	0.730	C.3	1	UNK11	0.000	
3	 H01	2.086	-3.154	0.355	 H	1	UNK11	0.000	
4	 H02	1.152	-2.754	1.817	 H	1	UNK11	0.000	
5	 H03	1.175	-1.627	0.440	 H	1	UNK11	0.000	
6	 H04	0.141	-4.281	0.246	 H	1	UNK11	0.000	
@<TRIPOS>BOND
1 1 2 1
2 2 3 1
3 2 4 1
4 2 5 1
5 1 6 1
