# created with PyMOL 2.3.2
@<TRIPOS>MOLECULE
acceptor
3 2 1                   
SMALL
USER_CHARGES
@<TRIPOS>ATOM
1	 O02	1.663	-0.522	0.356	O.3	1	UNK11	0.000	
2	 H03	0.843	-0.689	0.827	 H	1	UNK11	0.000	
3	 H04	2.358	-1.081	0.710	 H	1	UNK11	0.000	
@<TRIPOS>BOND
1 1 2 1
2 1 3 1
@<TRIPOS>SUBSTRUCTURE
1	UNK11	1	GROUP	1 ****	UNK1
