@<TRIPOS>MOLECULE
benzene
12 12 1                 
SMALL
USER_CHARGES
@<TRIPOS>ATOM
1	 C01	1.405	-0.000	0.000	C.2	1	UNK1	0.000	
2	 C02	0.702	1.216	0.000	C.2	1	UNK1	0.000	
3	 C03	-0.702	1.216	0.000	C.2	1	UNK1	0.000	
4	 C04	-1.404	-0.000	0.000	C.2	1	UNK1	0.000	
5	 C05	-0.702	-1.216	0.000	C.2	1	UNK1	0.000	
6	 C06	0.702	-1.216	0.000	C.2	1	UNK1	0.000	
7	 H07	2.508	-0.000	0.000	 H	1	UNK1	0.000	
8	 H08	1.254	2.172	0.000	 H	1	UNK1	0.000	
9	 H09	-1.254	2.172	0.000	 H	1	UNK1	0.000	
10	 H10	-2.508	-0.000	0.000	 H	1	UNK1	0.000	
11	 H11	-1.254	-2.172	0.000	 H	1	UNK1	0.000	
12	 H12	1.254	-2.172	0.000	 H	1	UNK1	0.000	
@<TRIPOS>BOND
1 1 2 2
2 1 6 1
3 1 7 1
4 2 3 1
5 2 8 1
6 3 4 2
7 3 9 1
8 4 5 1
9 4 10 1
10 5 6 2
11 5 11 1
12 6 12 1
