@<TRIPOS>MOLECULE
edgetoface
12 12 1                 
SMALL
USER_CHARGES
@<TRIPOS>ATOM
1	 C01	0.916	0.310	2.717	C.2	1	UNK1	0.000	
2	 C02	0.638	-0.122	4.024	C.2	1	UNK1	0.000	
3	 C03	-0.307	-1.136	4.244	C.2	1	UNK1	0.000	
4	 C04	-0.978	-1.718	3.155	C.2	1	UNK1	0.000	
5	 C05	-0.700	-1.286	1.848	C.2	1	UNK1	0.000	
6	 C06	0.245	-0.272	1.628	C.2	1	UNK1	0.000	
7	 H07	1.658	1.108	2.545	 H	1	UNK1	0.000	
8	 H08	1.165	0.336	4.880	 H	1	UNK1	0.000	
9	 H09	-0.525	-1.475	5.271	 H	1	UNK1	0.000	
10	 H10	-1.720	-2.516	3.327	 H	1	UNK1	0.000	
11	 H11	-1.227	-1.744	0.992	 H	1	UNK1	0.000	
12	 H12	0.463	0.067	0.601	 H	1	UNK1	0.000	
@<TRIPOS>BOND
1 1 2 2
2 1 6 1
3 1 7 1
4 2 3 1
5 2 8 1
6 3 4 2
7 3 9 1
8 4 5 1
9 4 10 1
10 5 6 2
11 5 11 1
12 6 12 1
@<TRIPOS>SUBSTRUCTURE
1	UNK11	1	GROUP	1 ****	UNK1
