@<TRIPOS>MOLECULE
facetoface
12 12 1                 
SMALL
USER_CHARGES
@<TRIPOS>ATOM
1	 C01	1.427	-0.216	-1.335	C.2	1	UNK1	0.000	
2	 C02	0.717	0.989	-1.217	C.2	1	UNK1	0.000	
3	 C03	-0.685	0.974	-1.132	C.2	1	UNK1	0.000	
4	 C04	-1.376	-0.248	-1.165	C.2	1	UNK1	0.000	
5	 C05	-0.667	-1.453	-1.283	C.2	1	UNK1	0.000	
6	 C06	0.735	-1.438	-1.368	C.2	1	UNK1	0.000	
7	 H07	2.528	-0.204	-1.401	 H	1	UNK1	0.000	
8	 H08	1.260	1.950	-1.191	 H	1	UNK1	0.000	
9	 H09	-1.243	1.922	-1.039	 H	1	UNK1	0.000	
10	 H10	-2.478	-0.260	-1.099	 H	1	UNK1	0.000	
11	 H11	-1.210	-2.414	-1.309	 H	1	UNK1	0.000	
12	 H12	1.293	-2.386	-1.461	 H	1	UNK1	0.000	
@<TRIPOS>BOND
1 1 2 2
2 1 6 1
3 1 7 1
4 2 3 1
5 2 8 1
6 3 4 2
7 3 9 1
8 4 5 1
9 4 10 1
10 5 6 2
11 5 11 1
12 6 12 1
@<TRIPOS>SUBSTRUCTURE
1	UNK11	1	GROUP	1 ****	UNK1
