@<TRIPOS>MOLECULE
donor
5 4 1                   
SMALL
USER_CHARGES
@<TRIPOS>ATOM
1	 C01	0.022	0.319	-0.012	C.3	1	UNK11	0.000	
2	 Cl1	-0.100	-1.446	0.054	Cl	1	UNK11	0.000	
3	 H01	0.018	0.722	1.001	 H	1	UNK11	0.000	
4	 H02	-0.825	0.722	-0.567	 H	1	UNK11	0.000	
5	 H03	0.950	0.600	-0.511	 H	1	UNK11	0.000	
@<TRIPOS>BOND
1 1 3 1
2 1 4 1
3 1 5 1
4 1 2 1
