@<TRIPOS>MOLECULE
acceptor
6 5 1                   
SMALL
USER_CHARGES
@<TRIPOS>ATOM
1	 O02	1.118	-2.602	0.399	O.3	1	UNK11	0.000	
2	 C01	2.376	-2.012	0.735	C.3	1	UNK11	0.000	
3	 H01	2.728	-2.420	1.682	 H	1	UNK11	0.000	
4	 H02	2.260	-0.932	0.825	 H	1	UNK11	0.000	
5	 H04	3.102	-2.234	-0.048	 H	1	UNK11	0.000	
6	 H03	1.215	-3.555	0.332	 H	1	UNK11	0.000	
@<TRIPOS>BOND
1 1 2 1
2 1 6 1
3 2 3 1
4 2 4 1
5 2 5 1
